! 6-31G* SV/C Direct Conv Grid4
! KDIIS

%pointcharges "./field.pc"

%MaxCore 64000

%pal
nprocs=4
end

%scf maxiter=999
     maxintmem=2500
     maxdisk=12000
     end
     
%casscf nel 6 norb 6 mult 1 nroots 4 
        maxiter 999
        ci NGuessMat 512 end
        trafostep RI
        gtol 1e-5 
end

%mrci ewin         -4,1000
      citype        SORCI
      nguessmat     512 
      DavidsonOpt   Davidson1
      UseIVOs       false
      tsel          1e-6
      tpre          1e-4
      tnat          1e-6
      tstore        1e-8
      solver        diis
      cimode        direct2
      intmode       ritrafo
      mrpt_shift    0.4
      etol          1e-5
      rtol          1e-5
      MaxMemInt     2000
      MaxMemVec     100
      FourIndexInts true
      newblock 1 *
         nroots 4
         refs cas(6,6) end
         end
      end 
     
* xyz 1 1
6     -6.288025     0.001640     -22.927785
6     -7.184731     0.333643     -21.706241
1     -6.579548     0.469388     -20.810448
1     -7.714461     1.270478     -21.878430
6     -8.238757     -0.734724     -21.453535
1     -7.778773     -1.709348     -21.292751
1     -8.826409     -0.456008     -20.578683
6     -9.135820     -0.766380     -22.683873
1     -9.831144     -1.598698     -22.577983
1     -9.723108     0.145407     -22.675895
6     -8.397180     -0.856151     -24.016911
6     -7.067927     -0.543332     -24.148299
6     -6.409503     -0.778399     -25.427815
1     -7.076766     -1.126220     -26.196573
6     -5.064527     -0.663409     -25.822114
1     -4.353843     -0.310209     -25.097123
6     -4.520099     -0.994874     -27.082997
6     -3.144444     -0.720738     -27.224509
1     -2.640399     -0.303516     -26.362969
6     -2.348436     -0.920913     -28.366181
1     -2.764894     -1.297741     -29.288443
6     -0.988291     -0.581204     -28.246819
1     -0.663605     -0.241478     -27.272424
6     -0.030027     -0.615202     -29.277383
6     1.267780     -0.181313     -28.921550
1     1.474708     -0.033567     -27.875526
6     2.290698     0.186903     -29.805885
1     2.131558     0.181846     -30.872934
6     -5.615686     1.366211     -23.223678
1     -5.165094     1.772618     -22.317985
1     -4.831999     1.292061     -23.968415
1     -6.359044     2.074658     -23.593501
6     -5.237394     -1.027157     -22.446317
1     -4.750912     -0.679162     -21.535580
1     -5.711444     -1.988685     -22.247733
1     -4.462849     -1.184026     -23.191408
6     -9.305515     -1.287156     -25.163352
1     -10.323034     -1.431669     -24.809262
1     -9.319502     -0.515173     -25.933365
1     -8.956164     -2.220764     -25.598532
6     -5.345983     -1.633271     -28.192529
1     -4.715772     -2.237488     -28.842276
1     -6.098406     -2.300976     -27.773643
1     -5.836171     -0.859231     -28.781439
6     -0.413567     -1.096611     -30.669288
1     -1.307954     -0.577941     -31.008579
1     0.377248     -0.944700     -31.399302
1     -0.634622     -2.163723     -30.618683
7     3.432477     0.689511     -29.307513
1     3.637384     0.650419     -28.306106
1     4.118973     1.197432     -29.874119
*