! 6-31G* SV/C Direct Conv Grid4
! KDIIS

%pointcharges "./field.pc"

%MaxCore 64000

%pal
nprocs=4
end

%scf maxiter=999
     maxintmem=2500
     maxdisk=12000
     end
     
%casscf nel 6 norb 6 mult 1 nroots 4 
        maxiter 999
        ci NGuessMat 512 end
        trafostep RI
        gtol 1e-5 
end

%mrci ewin         -4,1000
      citype        SORCI
      nguessmat     512 
      DavidsonOpt   Davidson1
      UseIVOs       false
      tsel          1e-6
      tpre          1e-4
      tnat          1e-6
      tstore        1e-8
      solver        diis
      cimode        direct2
      intmode       ritrafo
      mrpt_shift    0.4
      etol          1e-5
      rtol          1e-5
      MaxMemInt     2000
      MaxMemVec     100
      FourIndexInts true
      newblock 1 *
         nroots 4
         refs cas(6,6) end
         end
      end 
     
* xyz 1 1
6     -6.693571     0.344205     -23.275910
6     -7.732091     0.741095     -22.199507
1     -7.203301     1.189770     -21.349665
1     -8.393157     1.505200     -22.625389
6     -8.595316     -0.424054     -21.748098
1     -7.969879     -1.221839     -21.329888
1     -9.270277     -0.102213     -20.946762
6     -9.397331     -0.932314     -22.943410
1     -9.785604     -1.939650     -22.749818
1     -10.306034     -0.334880     -23.078156
6     -8.661080     -0.928633     -24.259324
6     -7.385935     -0.441060     -24.409814
6     -6.728413     -0.689332     -25.675528
1     -7.366196     -1.083647     -26.459357
6     -5.398522     -0.579607     -25.991412
1     -4.696245     -0.226724     -25.245594
6     -4.809208     -0.970615     -27.237045
6     -3.423054     -0.931924     -27.308516
1     -2.902497     -0.632072     -26.400348
6     -2.587578     -1.270716     -28.389081
1     -3.013036     -1.502016     -29.363209
6     -1.213437     -1.302437     -28.203089
1     -0.874198     -1.117976     -27.186303
6     -0.194360     -1.498402     -29.156445
6     1.117275     -1.429716     -28.652282
1     1.206748     -1.424499     -27.570730
6     2.274955     -1.076058     -29.328467
1     2.292376     -0.870834     -30.397385
6     -6.149367     1.686390     -23.830316
1     -5.897892     2.353230     -22.997970
1     -5.253037     1.584035     -24.443929
1     -6.921233     2.184065     -24.429498
6     -5.582508     -0.493444     -22.600645
1     -5.217637     0.029221     -21.710845
1     -5.961486     -1.468005     -22.276611
1     -4.727106     -0.671500     -23.256317
6     -9.484622     -1.466656     -25.407875
1     -10.410667     -1.890480     -25.023710
1     -9.748721     -0.651298     -26.092554
1     -8.985864     -2.243190     -25.992812
6     -5.657500     -1.479508     -28.370896
1     -5.108413     -1.496903     -29.313293
1     -5.996531     -2.499899     -28.156442
1     -6.548410     -0.863055     -28.510815
6     -0.491081     -1.707191     -30.614294
1     -1.321922     -1.082648     -30.952535
1     0.372224     -1.510945     -31.252253
1     -0.784075     -2.752119     -30.775676
7     3.410997     -0.866089     -28.651380
1     3.399427     -1.098954     -27.649993
1     4.132423     -0.187889     -28.931601
*