! 6-31G* SV/C Direct Conv Grid4
! KDIIS

%pointcharges "./field.pc"

%MaxCore 64000

%pal
nprocs=4
end

%scf maxiter=999
     maxintmem=2500
     maxdisk=12000
     end

%casscf nel 6 norb 6 mult 1 nroots 4
        maxiter 999
        ci NGuessMat 512 end
        trafostep RI
        gtol 1e-5
end

%mrci ewin         -4,1000
      citype        SORCI
      nguessmat     512
      DavidsonOpt   Davidson1
      UseIVOs       false
      tsel          1e-6
      tpre          1e-4
      tnat          1e-6
      tstore        1e-8
      solver        diis
      cimode        direct2
      intmode       ritrafo
      mrpt_shift    0.4
      etol          1e-5
      rtol          1e-5
      MaxMemInt     2000
      MaxMemVec     100
      FourIndexInts true
      newblock 1 *
         nroots 4
         refs cas(6,6) end
         end
      end

* xyz 1 1
6     -6.665196     0.049041     -23.063467
6     -7.712796     0.333248     -21.955294
1     -7.183503     0.578522     -21.027732
1     -8.297322     1.223667     -22.225097
6     -8.680167     -0.817858     -21.728713
1     -9.358078     -0.570347     -20.904654
1     -8.131101     -1.721342     -21.436206
6     -9.464491     -1.072208     -23.012161
1     -10.257986     -0.316531     -23.118997
1     -10.017378     -2.018927     -22.959962
6     -8.625876     -1.054260     -24.269873
6     -7.331249     -0.595754     -24.305394
6     -6.609736     -0.773064     -25.556502
1     -7.199987     -1.190158     -26.365860
6     -5.293189     -0.540417     -25.846934
1     -4.635990     -0.144606     -25.082531
6     -4.643509     -0.802996     -27.104117
6     -3.298213     -0.479254     -27.172284
1     -2.855431     -0.060590     -26.269551
6     -2.401905     -0.663065     -28.246454
1     -2.765393     -1.064017     -29.189100
6     -1.062888     -0.346059     -28.101045
1     -0.755659     0.019510     -27.125445
6     -0.046111     -0.446550     -29.075152
6     1.240349     -0.038456     -28.688573
1     1.407746     0.122367     -27.630677
6     2.296402     0.259176     -29.532768
1     2.191766     0.177423     -30.608448
6     -6.062166     1.436899     -23.407052
1     -6.809464     2.070370     -23.899283
1     -5.182047     1.396586     -24.050149
1     -5.764098     1.936992     -22.477104
6     -5.578601     -0.893311     -22.487876
1     -5.998140     -1.872567     -22.236606
1     -5.160532     -0.471106     -21.567664
1     -4.753009     -1.058205     -23.184841
6     -9.370368     -1.543459     -25.501111
1     -8.995894     -2.494608     -25.886764
1     -9.309015     -0.835545     -26.333501
1     -10.425310     -1.688520     -25.259528
6     -5.389081     -1.441467     -28.248562
1     -4.850309     -1.349714     -29.193930
1     -6.376615     -0.991090     -28.382462
1     -5.551216     -2.509136     -28.058014
6     -0.340859     -1.003585     -30.438523
1     0.422491     -0.756532     -31.177883
1     -1.308407     -0.670201     -30.816892
1     -0.378982     -2.097448     -30.364133
7     3.476433     0.693365     -29.086909
1     3.618036     0.829432     -28.079865
1     4.160717     1.216815     -29.644855
*